
#======================================================================
# CRYSTAL DATA
#----------------------------------------------------------------------
data_VESTA_phase_1

_chemical_name_common                  'CONTCAR                               '
_cell_length_a                         12.375900
_cell_length_b                         12.287800
_cell_length_c                         18.400000
_cell_angle_alpha                      90.000000
_cell_angle_beta                       90.000000
_cell_angle_gamma                      120.264198
_cell_volume                           2416.779413
_space_group_name_H-M_alt              'P 1'
_space_group_IT_number                 1

loop_
_space_group_symop_operation_xyz
   'x, y, z'

loop_
   _atom_site_label
   _atom_site_occupancy
   _atom_site_fract_x
   _atom_site_fract_y
   _atom_site_fract_z
   _atom_site_adp_type
   _atom_site_U_iso_or_equiv
   _atom_site_type_symbol
   C1         1.0     0.999337     0.999304     0.407197    Uiso  ? C
   C2         1.0     0.066131     0.132881     0.407066    Uiso  ? C
   C3         1.0     0.999911     0.999308     0.592575    Uiso  ? C
   C4         1.0     0.134523     0.069083     0.592767    Uiso  ? C
   C5         1.0     0.999361     0.199308     0.406853    Uiso  ? C
   C6         1.0     0.066127     0.332836     0.406571    Uiso  ? C
   C7         1.0     0.997962     0.197527     0.591735    Uiso  ? C
   C8         1.0     0.131858     0.266589     0.591644    Uiso  ? C
   C9         1.0     0.999360     0.399294     0.406359    Uiso  ? C
   C10        1.0     0.066095     0.532824     0.406225    Uiso  ? C
   C11        1.0     0.999086     0.399101     0.590045    Uiso  ? C
   C12        1.0     0.131049     0.467078     0.589769    Uiso  ? C
   C13        1.0     0.999344     0.599295     0.406377    Uiso  ? C
   C14        1.0     0.066112     0.732852     0.406538    Uiso  ? C
   C15        1.0     0.001991     0.600744     0.589783    Uiso  ? C
   C16        1.0     0.134086     0.668869     0.590121    Uiso  ? C
   C17        1.0     0.999346     0.799304     0.406928    Uiso  ? C
   C18        1.0     0.066119     0.932877     0.407078    Uiso  ? C
   C19        1.0     0.002851     0.801897     0.591491    Uiso  ? C
   C20        1.0     0.136189     0.870575     0.591880    Uiso  ? C
   C21        1.0     0.199352     0.999335     0.407213    Uiso  ? C
   C22        1.0     0.266121     0.132882     0.407538    Uiso  ? C
   C23        1.0     0.203233     0.004847     0.592981    Uiso  ? C
   C24        1.0     0.337744     0.074178     0.593870    Uiso  ? C
   C25        1.0     0.199357     0.199329     0.407327    Uiso  ? C
   C26        1.0     0.266128     0.332871     0.407403    Uiso  ? C
   C27        1.0     0.201913     0.203835     0.592883    Uiso  ? C
   C28        1.0     0.337342     0.275465     0.594963    Uiso  ? C
   C29        1.0     0.199345     0.399274     0.406906    Uiso  ? C
   C30        1.0     0.266107     0.532834     0.406918    Uiso  ? C
   C31        1.0     0.196527     0.400248     0.590576    Uiso  ? C
   C32        1.0     0.328530     0.468790     0.592047    Uiso  ? C
   C33        1.0     0.199333     0.599275     0.406498    Uiso  ? C
   C34        1.0     0.266109     0.732831     0.406721    Uiso  ? C
   C35        1.0     0.197984     0.600979     0.589862    Uiso  ? C
   C36        1.0     0.330459     0.669358     0.590602    Uiso  ? C
   C37        1.0     0.199343     0.799295     0.406707    Uiso  ? C
   C38        1.0     0.266099     0.932852     0.407122    Uiso  ? C
   C39        1.0     0.201487     0.803129     0.591193    Uiso  ? C
   C40        1.0     0.334199     0.870639     0.591843    Uiso  ? C
   C41        1.0     0.399338     0.999312     0.407435    Uiso  ? C
   C42        1.0     0.466097     0.132856     0.407706    Uiso  ? C
   C43        1.0     0.401962     0.004581     0.592999    Uiso  ? C
   C44        1.0     0.534608     0.068619     0.592981    Uiso  ? C
   C45        1.0     0.399347     0.199336     0.407888    Uiso  ? C
   C46        1.0     0.466102     0.332885     0.408154    Uiso  ? C
   C47        1.0     0.405470     0.208959     0.595161    Uiso  ? C
   C48        1.0     0.539977     0.275642     0.594304    Uiso  ? C
   C49        1.0     0.399346     0.399321     0.408019    Uiso  ? C
   C50        1.0     0.466106     0.532834     0.408116    Uiso  ? C
   C51        1.0     0.399350     0.599269     0.407625    Uiso  ? C
   C52        1.0     0.466121     0.732846     0.407659    Uiso  ? C
   C53        1.0     0.395048     0.603193     0.591593    Uiso  ? C
   C54        1.0     0.399352     0.799294     0.407260    Uiso  ? C
   C55        1.0     0.466113     0.932866     0.407420    Uiso  ? C
   C56        1.0     0.399058     0.802480     0.591513    Uiso  ? C
   C57        1.0     0.531582     0.864411     0.592478    Uiso  ? C
   C58        1.0     0.599358     0.999303     0.407543    Uiso  ? C
   C59        1.0     0.666115     0.132856     0.407359    Uiso  ? C
   C60        1.0     0.599671     0.999005     0.592708    Uiso  ? C
   C61        1.0     0.732284     0.062801     0.592801    Uiso  ? C
   C62        1.0     0.599339     0.199295     0.407572    Uiso  ? C
   C63        1.0     0.666091     0.332855     0.407554    Uiso  ? C
   C64        1.0     0.602538     0.203345     0.593001    Uiso  ? C
   C65        1.0     0.734929     0.265958     0.591811    Uiso  ? C
   C66        1.0     0.599321     0.399307     0.408066    Uiso  ? C
   C67        1.0     0.666081     0.532836     0.408114    Uiso  ? C
   C68        1.0     0.737340     0.466439     0.591591    Uiso  ? C
   C69        1.0     0.599335     0.599298     0.408408    Uiso  ? C
   C70        1.0     0.666104     0.732832     0.408141    Uiso  ? C
   C71        1.0     0.599369     0.799303     0.407964    Uiso  ? C
   C72        1.0     0.666127     0.932848     0.407660    Uiso  ? C
   C73        1.0     0.593328     0.791024     0.593689    Uiso  ? C
   C74        1.0     0.728258     0.856583     0.594351    Uiso  ? C
   C75        1.0     0.799357     0.999319     0.407432    Uiso  ? C
   C76        1.0     0.866121     0.132851     0.407037    Uiso  ? C
   C77        1.0     0.796406     0.992644     0.593377    Uiso  ? C
   C78        1.0     0.930768     0.063075     0.592704    Uiso  ? C
   C79        1.0     0.799354     0.199286     0.407011    Uiso  ? C
   C80        1.0     0.866124     0.332849     0.406658    Uiso  ? C
   C81        1.0     0.799698     0.197320     0.591844    Uiso  ? C
   C82        1.0     0.932419     0.264754     0.591121    Uiso  ? C
   C83        1.0     0.799342     0.399284     0.406958    Uiso  ? C
   C84        1.0     0.866114     0.532829     0.406807    Uiso  ? C
   C85        1.0     0.802486     0.399897     0.590688    Uiso  ? C
   C86        1.0     0.934940     0.467173     0.589848    Uiso  ? C
   C87        1.0     0.799321     0.599283     0.407476    Uiso  ? C
   C88        1.0     0.866110     0.732849     0.407377    Uiso  ? C
   C89        1.0     0.805695     0.601832     0.591497    Uiso  ? C
   C90        1.0     0.937176     0.668072     0.590455    Uiso  ? C
   C91        1.0     0.799331     0.799301     0.407750    Uiso  ? C
   C92        1.0     0.866096     0.932853     0.407447    Uiso  ? C
   C93        1.0     0.798295     0.791368     0.593705    Uiso  ? C
   C94        1.0     0.933244     0.864747     0.592417    Uiso  ? C
   C95        1.0     0.398844     0.408471     0.596061    Uiso  ? C
   C96        1.0     0.554413     0.519698     0.715946    Uiso  ? C
   N1         1.0     0.522031     0.661458     0.593873    Uiso  ? N
   N2         1.0     0.609239     0.405709     0.594053    Uiso  ? N
   N3         1.0     0.739431     0.662741     0.594224    Uiso  ? N
   Ni1        1.0     0.566204     0.532261     0.607646    Uiso  ? Ni
   O1         1.0     0.494251     0.451306     0.761889    Uiso  ? O
