
#======================================================================
# CRYSTAL DATA
#----------------------------------------------------------------------
data_VESTA_phase_1

_chemical_name_common                  'POSCAR-OCH'
_cell_length_a                         13.242400
_cell_length_b                         13.800300
_cell_length_c                         17.603500
_cell_angle_alpha                      90.000000
_cell_angle_beta                       90.000000
_cell_angle_gamma                      59.363701
_cell_volume                           2767.989444
_space_group_name_H-M_alt              'P 1'
_space_group_IT_number                 1

loop_
_space_group_symop_operation_xyz
   'x, y, z'

loop_
   _atom_site_label
   _atom_site_occupancy
   _atom_site_fract_x
   _atom_site_fract_y
   _atom_site_fract_z
   _atom_site_adp_type
   _atom_site_U_iso_or_equiv
   _atom_site_type_symbol
   Al1        1.0     0.625010     0.666540     0.613080    Uiso  ? Al
   C1         1.0     0.337820     0.327870     0.414740    Uiso  ? C
   C2         1.0     0.507680     0.315320     0.449190    Uiso  ? C
   C3         1.0     0.989680     0.500940     0.482820    Uiso  ? C
   C4         1.0     0.330920     0.493800     0.422570    Uiso  ? C
   C5         1.0     0.339110     0.153980     0.443570    Uiso  ? C
   C6         1.0     0.339630     0.990080     0.434540    Uiso  ? C
   C7         1.0     0.154940     0.333770     0.456290    Uiso  ? C
   C8         1.0     0.981860     0.989330     0.483150    Uiso  ? C
   C9         1.0     0.498390     0.005590     0.497010    Uiso  ? C
   C10        1.0     0.834650     0.656430     0.536270    Uiso  ? C
   C11        1.0     0.489560     0.835750     0.507400    Uiso  ? C
   C12        1.0     0.337050     0.828190     0.457030    Uiso  ? C
   C13        1.0     0.153590     0.826860     0.473450    Uiso  ? C
   C14        1.0     0.834620     0.488530     0.548470    Uiso  ? C
   C15        1.0     0.655490     0.844220     0.541020    Uiso  ? C
   C16        1.0     0.329760     0.649970     0.462440    Uiso  ? C
   C17        1.0     0.829960     0.147680     0.529230    Uiso  ? C
   C18        1.0     0.650710     0.322390     0.517000    Uiso  ? C
   C19        1.0     0.007600     0.316240     0.509350    Uiso  ? C
   C20        1.0     0.838740     0.320840     0.542140    Uiso  ? C
   C21        1.0     0.473790     0.487030     0.510440    Uiso  ? C
   C22        1.0     0.011600     0.813990     0.536290    Uiso  ? C
   C23        1.0     0.845130     0.823190     0.572680    Uiso  ? C
   C24        1.0     0.836180     0.989700     0.568160    Uiso  ? C
   C25        1.0     0.603760     0.504140     0.813900    Uiso  ? C
   Cu1        1.0     0.617640     0.509120     0.618160    Uiso  ? Cu
   N1         1.0     0.457110     0.264080     0.418750    Uiso  ? N
   N2         1.0     0.094820     0.446220     0.451500    Uiso  ? N
   N3         1.0     0.280210     0.438820     0.398010    Uiso  ? N
   N4         1.0     0.622110     0.266910     0.468400    Uiso  ? N
   N5         1.0     0.086900     0.933260     0.450510    Uiso  ? N
   N6         1.0     0.288720     0.604730     0.413770    Uiso  ? N
   N7         1.0     0.927740     0.612740     0.491690    Uiso  ? N
   N8         1.0     0.914160     0.101160     0.477320    Uiso  ? N
   N9         1.0     0.294430     0.094810     0.410610    Uiso  ? N
   N10        1.0     0.274490     0.274610     0.431440    Uiso  ? N
   N11        1.0     0.442850     0.942360     0.479760    Uiso  ? N
   N12        1.0     0.939880     0.436480     0.510260    Uiso  ? N
   N13        1.0     0.609860     0.949910     0.520050    Uiso  ? N
   N14        1.0     0.435130     0.115630     0.485810    Uiso  ? N
   N15        1.0     0.436640     0.432100     0.463950    Uiso  ? N
   N16        1.0     0.291400     0.926120     0.421020    Uiso  ? N
   N17        1.0     0.274470     0.770110     0.455970    Uiso  ? N
   N18        1.0     0.438630     0.776320     0.497560    Uiso  ? N
   N19        1.0     0.771310     0.268360     0.536120    Uiso  ? N
   N20        1.0     0.777240     0.774050     0.556900    Uiso  ? N
   N21        1.0     0.941880     0.931610     0.527040    Uiso  ? N
   N22        1.0     0.781180     0.431020     0.563790    Uiso  ? N
   N23        1.0     0.117830     0.267070     0.486970    Uiso  ? N
   N24        1.0     0.785520     0.597890     0.567770    Uiso  ? N
   N25        1.0     0.590730     0.791170     0.548070    Uiso  ? N
   N26        1.0     0.953400     0.260200     0.527960    Uiso  ? N
   N27        1.0     0.123950     0.764510     0.515590    Uiso  ? N
   N28        1.0     0.961580     0.758890     0.562650    Uiso  ? N
   N29        1.0     0.789140     0.101160     0.577260    Uiso  ? N
   N30        1.0     0.412850     0.598190     0.515940    Uiso  ? N
   N31        1.0     0.787690     0.932460     0.592970    Uiso  ? N
   N32        1.0     0.576510     0.424970     0.548080    Uiso  ? N
   O1         1.0     0.615630     0.509610     0.728930    Uiso  ? O
   H1         1.0     0.617200     0.425570     0.844430    Uiso  ? H
   H2         1.0     0.513740     0.583700     0.818590    Uiso  ? H
   H3         1.0     0.686290     0.506210     0.829200    Uiso  ? H
